   96
MD iter: 4000
    B      3.41653500     -3.15151816      0.93952797     17.74841447     26.98877608     -9.64281202
    B      5.58815536      2.57379435      4.59062882    -18.08808351    -16.11494900    -14.75399133
    B      2.83660085      1.68323379      2.08561352     -7.11468609     16.92343741    -14.35090979
    B      3.63786223      3.24925973      1.13743538     18.47984974     -1.53722765    -11.69450331
    B      5.54506706     -0.48239957      1.03904220     -6.12024266     -2.95548036    -11.76547385
    B      0.87364011     -2.58724263      2.29967187     18.30510740      6.61695558    -12.08548468
    B      0.23025498      0.42407801      0.65085112      4.78750582     -1.15747550      8.46509090
    B      3.94210840      2.11968439      5.19254795     22.42294327      1.07603768     -9.59657298
    B      0.39692128     -1.11837454     -0.64574230     23.01976247     14.71861690     -6.90629459
    B      6.96707811      2.87559513      1.60069918     -6.62657157      5.37889869      8.80432905
    B      2.39403467     -1.00829103     -2.44409605     -5.58084872      3.08552214     -4.78118242
    B      6.01829120      1.18183675      0.81519206    -29.51043542      0.13941707     -2.07729057
    B     -1.73622090      2.76771775      5.42772801      9.54816300     10.01953847     -8.58114398
    B      5.49908423      0.22892945      3.54946589     -9.18114408     -6.75950333      6.24850655
    B      2.73016675      3.27126750      5.47874284    -20.45302235      1.36866005     -2.44321861
    B     -0.92923590      3.10851188      1.89672900     18.22313819     20.97436772      1.91277175
    B      4.89326755     -1.02681150      2.48456542     -0.16436081    -21.17008614     -1.75570109
    B     -1.80390639      1.07502989      3.51489801      7.96516079     10.42083622     10.71442596
    B     -2.56419886      2.29993454      0.73717851     15.77628034     12.04423399      8.10278760
    B      2.71797759     -2.60901217     -1.86752431    -19.84210947     12.70434690     15.64661627
    B      3.97437017      5.90184811      5.28727823    -11.45180003     -2.58279667    -10.93922595
    B      5.29251299      5.23675058      0.73750495      6.56769862     -8.99946591     18.74956964
    B      4.57944249     -1.19132121     -0.28168443     40.75931723    -13.38741361     -3.15189967
    B      1.57150742     -2.15186008     -0.45788858    -16.94734704      1.62091677      6.17268277
    B      5.62949278      3.66553939      2.33024968     -3.44418764     -2.58693464     14.71794509
    B      1.81931640      3.47372795      1.68397667     -2.37533367     -6.98683074      4.84523729
    B      1.20179486      0.71770044      5.02105411    -12.44221679    -23.84220813     27.70397809
    B      4.79503259      3.68007810      5.63705854     15.89380632    -13.88486429    -15.91605834
    B      0.87745659      1.62871773      3.58162887    -23.68843639     11.36116750    -28.99945420
    B      3.55129997      0.37664646     -0.25925135    -10.01280193    -26.38896827    -17.36143133
    B      1.70215722     -3.08531421      1.00698675     -3.22778024      4.87530782     18.69602465
    B      3.87698254     -2.27055232      2.50071246     15.68854036     28.13283992    -13.38388931
    B      6.46743594      4.21981108      0.62721108     10.36507036     22.54303189      5.52268764
    B      1.75840391      0.45782398     -0.70133556     12.26027020      6.60917810     -5.52163669
    B      4.08119883      1.69017290      0.38681808      7.54558379     -6.50401616     -5.26868235
    B      2.17877506      5.51025891      3.69992431     -6.37886097     -0.97364615     10.74286158
    B     -1.15770866      4.74144532      1.40927755     14.80267985    -11.34384577    -21.09185381
    B      4.74762563      1.63462414      2.38425171    -23.91713680    -12.95710769      7.95962192
    B      2.22364494      6.57012515      5.19752752    -19.50366058    -13.88224120     18.29044450
    B      3.93783677      3.14302104      2.81218855    -21.53504025     -0.51014345     17.52586258
    B     -0.07946366     -1.36943793      4.79895621    -24.16058806     23.37845176     15.74104273
    B      6.13461958      1.80376946      3.20987874     -7.20405728     -6.59271568     -7.45683453
    B      2.07312409     -0.65954199      0.66815340     -6.26969845     -9.44526315     20.69944591
    B      3.32082489      0.31736241     -2.03101149     -4.87330634      8.13054757    -26.84419432
    B      0.13531335      1.82315980     -0.48482417      4.10216855    -11.49593486     18.31038640
    B      0.50583962      4.18059431     -0.59118450     -3.69341802      4.29977023     -6.22731016
    B      1.16583486      3.30496245      6.45219600    -16.63209866     -8.06352309     -0.35708462
    B      3.67296572     -2.55734982     -0.57941833    -14.36677247     -8.89327824     19.32056694
    B     -0.84630110      2.70996108      3.53738571      0.64981257      6.61216476    -21.94285367
    B     -1.37394127      1.57383445     -1.64962795    -16.94797569    -18.81919217     14.46142094
    B     -0.48859974      0.07151234      5.36352298     11.92820442      2.05593163      5.06744505
    B      4.28095130      0.42814468      4.67407773      1.72719618      0.60747960    -15.03099696
    B     -0.15702766      5.18112269      5.04745527      3.95539206      4.97399938      1.50805565
    B      3.58733366      3.78705074     -0.88923399      4.74308036     -4.58847498      6.18565298
    B     -1.09999739      4.09712383     -0.15341414    -17.97503376    -12.68165517     37.10450084
    B      0.89828066      6.56899885      1.09032686    -14.65821426     14.54161207    -10.13760993
    B      0.06902931      6.17790041      3.73855775     11.86351211     -4.19576694      9.04761369
    B      3.21043817      6.55692087      2.36798991     -2.88012572      1.31642284      7.10005332
    B      3.05159438      4.87561430      0.12547630     12.92480892    -13.81896462      5.76514868
    B      1.80427324      7.50461269      2.25375587     -6.30777684     -8.36420527     -7.12637523
    B     -2.66220028      1.85742676      2.32431460    -11.25092683      3.45184266    -14.52478591
    B      0.27893912      1.51205708     -2.28279608      9.76239227     13.39255414      2.74821285
    B      4.30870925      1.45890732     -1.95376640      4.88240694     -2.47667402     15.82115124
    B     -0.84104324     -0.02537565     -1.07901677    -13.11824455      1.98369505      3.10017338
    B      2.28505501      2.78298603      3.52706610     -7.61069376      2.87496880     -3.32257004
    B     -1.15607282      3.97225608      4.62644003      5.21285844    -10.23017209      6.63924149
    B      1.27654509      0.24250118     -2.40405953      0.64827561    -14.98704246      9.06737686
    B      3.58525535      0.40752307      3.09736865    -16.97005702     13.06067486    -14.60630848
    B      3.94336972      4.75001307      6.50612602      9.16465614     -6.90799798      4.42586214
    B      3.98342510      5.61084093      1.41271115     14.24508775      0.42059367     -4.59942623
    B      1.93814770     -0.30615130      3.79683750      5.11522713     12.64829006    -14.39535822
    B     -2.04090746      2.93659219     -0.70349216    -14.13062317    -21.47373291      4.54130663
    B      2.61203711      2.19724619     -1.90044898      7.63696738    -14.91511302     -5.12972117
    B      0.35001154      2.27596581      1.26029979     26.20433239     13.75960403    -18.44579842
    B      1.29466962      5.40214990      5.85057942      4.01698581     21.39215743    -15.73149281
    B     -1.62436113      1.09210811      5.03450013    -10.80329158      0.94105908     21.54577188
    B      5.20503606      4.37025072      3.78884717     -8.28901556     -8.87459873     14.27986563
    B      1.12340279      2.97572130     -1.80510218      2.10349012      1.15384765     -3.74007704
    B      6.20738873      2.69480197     -0.11531154     -7.70098241      2.40231008    -14.41830014
    B      2.32701492     -2.51306199      3.38803639     39.03794763      7.59255023     -8.62549842
    B      2.23401992      4.37478613      6.70323575     16.07310537      5.30778003      2.68751130
    B      1.30608603      7.27458774      3.82115212      2.97497090    -13.27545360      6.19092201
    B      1.36927782     -1.95463838      4.57633212     -8.04922312     12.76382184     -1.68704507
    B      1.19527993      4.90274185      2.61389441    -10.25905137     -4.60901974      3.17268216
    B      2.56946489     -0.66699009      2.22418483     12.77310038     21.42041926     18.50285369
    B     -0.79619615     -0.09005881      2.87256410     14.52637514     -7.42074529    -22.61543424
    B     -1.36298806      1.06177972      0.33343121     -3.12872391     -7.00873590      9.10895295
    B      4.09349316      5.85833156      3.66177290     -6.43418593      4.19635609      3.03117295
    B      1.41267143      5.14730305      0.35384828      5.98964445     -6.36156980    -10.61665277
    B      0.10046487      2.25611004      5.59509653     22.46469557      1.22745268    -12.82562389
    B      2.73627127      0.51401732      5.28804794      3.30143763     -1.01607361     -6.31763721
    B      0.69850991      0.43445495      2.37286009      1.28572094    -25.64811722     -5.46263202
    B      4.91236149      2.78780557     -1.12346214     24.34018289    -15.56896937      8.67427979
    B      3.21184569      4.15901928      4.21635597    -22.91214691     28.27737183     -1.07399032
    B     -0.15050197      5.93809087      2.10929823     -6.78777521     16.94997998      9.63513680
    B     -0.39963623     -1.74088220      3.12859197     -2.79321435     -6.47760162     -8.97492803
